/prep7
ET,1,PLANE42
MPTEMP,,,,,,,,  
MPTEMP,1,0  
MPDATA,EX,1,,2e6
MPDATA,PRXY,1,,0.3  
K,1,,,, 
K,2,63,,,   
K,3,63,9,,  
K,4,4.5,9,, 
K,5,4.5,300-9,, 
K,6,63,300-9,,  
K,7,63,300,,
K,8,0,300,,