!±‰Ωÿ√Ê¡∫∑÷Œˆ
fini
/clear
/prep7
/title,ex2-3
et,beam188
mp,ex,1,30e6
mp,nuxy,1,0
sectype,1,beam,rect
secdata,1e-6,0.5
sectype,2,beam,rect
secdata,3,0.5
sectype,3,taper
secdata,1,0,0
secdata,2,20,0
n,1
n,8,20
fill
n,10,,,1
ngen,8,1,10
secnum,3
e,1,2,10
egen,7,1,1,,,,,1
d,8,all
d,1,uy,,,7,,rotx,rotz
f,1,fz,-10e-3
finish
/solu
solve