

/prep7
et,1,82  !注意划分截面单元需要用PLANE82单元。此处千万别用梁单元
mp,prxy,1,1/3  !定义泊桑比
mp,ex,1,2.07e11  !定义弹性模量

asel,all !选择所有的面
esize,,3 !确定划分网格的大小，每边划成3份。如果你愿意，也可以改变网格数量。

amesh,all !给截面划分网格


secwrite,ZJHH_BB_E6E8,sect,,1 !将截面命名为jm2.sect写入当前工作目录中去。

sectype,3,beam,mesh  !指定读入的截面类型在后面使用中编号
secoffset,user,0,0   !指定截面在梁纵轴上的偏移量
secread,'ZJHH_BB_E6E8','sect',,mesh !读入截面

secplot,3